xflr5 v6.61

 Calculated polar for: NASA LRN 1015 (NASA TM 102840)

 1 1 Reynolds number fixed          Mach number fixed         

 xtrf =   1.000 (top)        1.000 (bottom)
 Mach =   0.470     Re =     2.500 e 6     Ncrit =   9.000

  alpha     CL        CD       CDp       Cm    Top Xtr Bot Xtr   Cpmin    Chinge    XCp    
 ------- -------- --------- --------- -------- ------- ------- -------- --------- ---------
  -5.000   0.0635   0.01357   0.00953  -0.1252  0.6710  0.0078  -3.8810   0.0000   0.0000   0.0000   2.2873
  -4.500   0.1172   0.01040   0.00590  -0.1231  0.6684  0.0090  -3.4774   0.0000   0.0000   0.0000   1.3327
  -4.000   0.1774   0.00897   0.00427  -0.1217  0.6652  0.0096  -2.9680   0.0000   0.0000   0.0000   0.9550
  -3.500   0.2398   0.00811   0.00328  -0.1209  0.6618  0.0104  -2.5380   0.0000   0.0000   0.0000   0.7659
  -3.000   0.3050   0.00772   0.00281  -0.1207  0.6579  0.0115  -2.0504   0.0000   0.0000   0.0000   0.6533
  -2.500   0.3696   0.00729   0.00228  -0.1204  0.6528  0.0146  -1.6881   0.0000   0.0000   0.0000   0.5807
  -2.000   0.4357   0.00726   0.00226  -0.1207  0.6447  0.0159  -1.2409   0.0000   0.0000   0.0000   0.5300
  -1.500   0.5011   0.00705   0.00197  -0.1209  0.6389  0.0173  -0.9688   0.0000   0.0000   0.0000   0.4927
  -1.000   0.5683   0.00685   0.00173  -0.1213  0.6381  0.0222  -1.0025   0.0000   0.0000   0.0000   0.4638
  -0.500   0.6287   0.00585   0.00157  -0.1213  0.6365  0.3239  -1.0357   0.0000   0.0000   0.0000   0.4423
   0.000   0.6885   0.00491   0.00148  -0.1211  0.6312  0.6408  -1.0699   0.0000   0.0000   0.0000   0.4242
   0.500   0.7533   0.00475   0.00156  -0.1210  0.6224  0.7507  -1.1071   0.0000   0.0000   0.0000   0.4082
   1.000   0.8185   0.00485   0.00165  -0.1210  0.6095  0.7767  -1.1477   0.0000   0.0000   0.0000   0.3947
   1.500   0.8858   0.00499   0.00176  -0.1215  0.5988  0.7836  -1.2144   0.0000   0.0000   0.0000   0.3831
   2.000   0.9546   0.00503   0.00185  -0.1221  0.5933  0.7937  -1.3074   0.0000   0.0000   0.0000   0.3732
   2.500   1.0179   0.00525   0.00200  -0.1217  0.5694  0.8027  -1.4055   0.0000   0.0000   0.0000   0.3640
   3.000   1.0815   0.00551   0.00221  -0.1212  0.5447  0.8090  -1.5167   0.0000   0.0000   0.0000   0.3558
   3.500   1.1336   0.00617   0.00268  -0.1185  0.4939  0.8136  -1.6319   0.0000   0.0000   0.0000   0.3476
   4.000   1.1633   0.00754   0.00370  -0.1121  0.4063  0.8163  -1.7245   0.0000   0.0000   0.0000   0.3387
   4.500   1.1755   0.00902   0.00493  -0.1029  0.3339  0.8278  -1.8115   0.0000   0.0000   0.0000   0.3290
   5.000   1.1847   0.01093   0.00673  -0.0945  0.2852  0.8371  -1.9124   0.0000   0.0000   0.0000   0.3204
   5.500   1.1678   0.01502   0.01056  -0.0856  0.2144  0.8446  -1.9716   0.0000   0.0000   0.0000   0.3128
   6.000   1.1527   0.01887   0.01410  -0.0769  0.1457  0.8535  -2.0322   0.0000   0.0000   0.0000   0.3052
   6.500   1.1527   0.02221   0.01729  -0.0703  0.0988  0.8655  -2.1162   0.0000   0.0000   0.0000   0.2985
   7.000   1.1648   0.02505   0.01997  -0.0651  0.0614  0.8731  -2.2227   0.0000   0.0000   0.0000   0.2925
   7.500   1.1866   0.02779   0.02272  -0.0612  0.0441  0.8871  -2.3534   0.0000   0.0000   0.0000   0.2873
   9.500   1.3102   0.03858   0.03384  -0.0516  0.0075  1.0000  -2.9543   0.0000   0.0000   0.0000   0.2712
  10.000   1.3442   0.04124   0.03655  -0.0493  0.0056  1.0000  -3.1447   0.0000   0.0000   0.0000   0.2675
  10.500   1.3779   0.04408   0.03946  -0.0471  0.0041  1.0000  -3.3463   0.0000   0.0000   0.0000   0.2639
  11.000   1.4015   0.04795   0.04342  -0.0449  0.0033  1.0000  -3.5252   0.0000   0.0000   0.0000   0.2607


